Version 4
SHEET 1 3472 1268
WIRE -448 -256 -1088 -256
WIRE -320 -256 -384 -256
WIRE -272 -256 -320 -256
WIRE -96 -256 -192 -256
WIRE 448 -256 -96 -256
WIRE -384 -224 -384 -256
WIRE -384 -112 -384 -144
WIRE -384 -112 -1088 -112
WIRE -592 -80 -656 -80
WIRE -560 -80 -592 -80
WIRE -384 -80 -384 -112
WIRE -656 -48 -656 -80
WIRE -736 -32 -1088 -32
WIRE 448 -32 -192 -32
WIRE -560 16 -560 -80
WIRE -448 48 -448 -256
WIRE 48 48 -448 48
WIRE -656 64 -656 32
WIRE 448 64 288 64
WIRE -736 96 -736 -32
WIRE -704 96 -736 96
WIRE -560 112 -560 80
WIRE -560 112 -656 112
WIRE -192 112 -192 -32
WIRE -192 112 -560 112
WIRE 16 112 -192 112
WIRE 48 112 48 48
WIRE 288 112 288 64
WIRE -704 128 -1088 128
WIRE -560 128 -560 112
WIRE 192 128 80 128
WIRE 240 128 192 128
WIRE 16 144 -64 144
WIRE 240 176 192 176
WIRE -560 208 -560 192
WIRE 48 208 48 144
WIRE 192 208 192 176
WIRE -560 224 -560 208
WIRE 288 240 288 192
WIRE 448 240 288 240
WIRE -560 336 -560 304
WIRE -64 352 -64 144
WIRE 448 352 -64 352
WIRE -480 368 -1104 368
WIRE -448 368 -448 48
WIRE -192 384 -192 112
WIRE -192 384 -416 384
WIRE -512 400 -528 400
WIRE -480 400 -512 400
WIRE -64 416 -64 352
WIRE -528 432 -528 400
WIRE -448 480 -448 400
WIRE -528 560 -528 512
WIRE -528 560 -1104 560
WIRE -64 560 -64 496
WIRE -192 640 -192 384
WIRE -560 688 -1104 688
WIRE -448 688 -480 688
WIRE -432 688 -448 688
WIRE -384 688 -432 688
WIRE -272 688 -304 688
WIRE -256 688 -272 688
WIRE -432 784 -432 688
WIRE -384 784 -432 784
WIRE -192 784 -192 736
WIRE -192 784 -304 784
WIRE -192 848 -192 784
FLAG -64 560 0
FLAG 48 208 0
FLAG -384 -80 0
FLAG -96 -256 REF
FLAG 192 128 pwm
FLAG 192 208 0
FLAG -448 480 0
FLAG -192 848 0
FLAG -1088 -256 VIN
IOPIN -1088 -256 In
FLAG -1088 -32 INV
IOPIN -1088 -32 In
FLAG 448 -256 VREF
IOPIN 448 -256 Out
FLAG -1088 128 N_INV
IOPIN -1088 128 In
FLAG 448 -32 COMP
IOPIN 448 -32 Out
FLAG -1104 688 SD
IOPIN -1104 688 In
FLAG -1104 368 +CL
IOPIN -1104 368 In
FLAG -1104 560 -CL
IOPIN -1104 560 In
FLAG 448 352 SWO
IOPIN 448 352 Out
FLAG 448 64 +DR
IOPIN 448 64 Out
FLAG 448 240 -DR
IOPIN 448 240 Out
FLAG -1088 -112 GND
IOPIN -1088 -112 In
FLAG -272 688 base
FLAG -512 400 thr
FLAG -448 688 sd1
FLAG -320 -256 VB5
FLAG -560 336 0
FLAG -656 64 0
FLAG -592 -80 +lim
FLAG -560 208 -lim
SYMBOL voltage -64 400 R0
WINDOW 123 0 0 Left 0
WINDOW 39 0 0 Left 0
SYMATTR InstName V1
SYMATTR Value PULSE(0.6 3.8 0 {0.99*1/f} {0.01*1/f} 0 {1/f})
SYMBOL MyComparator 48 128 R0
SYMATTR InstName U1
SYMBOL MyOTA -672 112 M180
WINDOW 39 -50 -75 Center 2
WINDOW 40 -46 -98 Center 2
WINDOW 38 -135 2 Left 2
SYMATTR SpiceLine Ri=10e6 Ro=5e6
SYMATTR InstName U2
SYMBOL voltage -384 -240 R0
WINDOW 123 0 0 Left 0
WINDOW 39 0 0 Left 0
SYMATTR InstName V3
SYMATTR Value 5
SYMBOL e 288 96 R0
SYMATTR InstName E2
SYMATTR Value 1
SYMBOL MyComparatorOC -448 384 R0
WINDOW 38 16 33 Left 2
SYMATTR InstName U3
SYMBOL res -176 -272 R90
WINDOW 0 0 56 VBottom 2
WINDOW 3 32 56 VTop 2
SYMATTR InstName R3
SYMATTR Value 10
SYMBOL voltage -528 528 R180
WINDOW 0 51 64 Left 2
WINDOW 3 35 37 Left 2
WINDOW 123 0 0 Left 0
WINDOW 39 0 0 Left 0
SYMATTR InstName V4
SYMATTR Value 200m
SYMBOL res -288 672 R90
WINDOW 0 0 56 VBottom 2
WINDOW 3 32 56 VTop 2
SYMATTR InstName R4
SYMATTR Value 200
SYMBOL res -464 672 R90
WINDOW 0 0 56 VBottom 2
WINDOW 3 32 56 VTop 2
SYMATTR InstName R5
SYMATTR Value 1k
SYMBOL res -288 768 R90
WINDOW 0 0 56 VBottom 2
WINDOW 3 32 56 VTop 2
SYMATTR InstName R6
SYMATTR Value 10k
SYMBOL npn -256 640 R0
SYMATTR InstName Q1
SYMBOL voltage -560 208 R0
WINDOW 123 0 0 Left 0
WINDOW 39 0 0 Left 0
SYMATTR InstName V2
SYMATTR Value 1.2
SYMBOL diode -544 192 R180
WINDOW 0 -38 55 Left 2
WINDOW 3 -30 24 Left 2
SYMATTR InstName D1
SYMBOL voltage -656 -64 R0
WINDOW 123 0 0 Left 0
WINDOW 39 0 0 Left 0
SYMATTR InstName V5
SYMATTR Value 4.8
SYMBOL diode -544 80 R180
WINDOW 0 -39 30 Left 2
WINDOW 3 -25 3 Left 2
SYMATTR InstName D2
